untitled
  ChemPy            3D                             0

 25 27  0  0  1  0  0  0  0  0999 V2000
    6.5880   34.1150   75.9510 S   0  0  0  0  0  0  0  0  0  0  0  0
    5.2540   34.2430   75.4150 O   0  0  0  0  0  0  0  0  0  0  0  0
    7.6550   34.9170   75.4230 O   0  0  0  0  0  0  0  0  0  0  0  0
    6.4630   34.5950   77.6240 N   0  0  0  0  0  0  0  0  0  0  0  0
    7.0620   32.3970   75.9440 C   0  0  0  0  0  0  0  0  0  0  0  0
    8.4270   32.0420   75.8960 C   0  0  0  0  0  0  0  0  0  0  0  0
    8.8000   30.6870   75.8930 C   0  0  0  0  0  0  0  0  0  0  0  0
    7.8070   29.6870   75.9390 C   0  0  0  0  0  0  0  0  0  0  0  0
    6.4410   30.0340   75.9870 C   0  0  0  0  0  0  0  0  0  0  0  0
    6.0680   31.3910   75.9900 C   0  0  0  0  0  0  0  0  0  0  0  0
   11.1380   35.2430   79.2330 C   0  0  0  0  0  0  0  0  0  0  0  0
   11.4490   34.9390   77.7710 C   0  0  0  0  0  0  0  0  0  0  0  0
   11.6210   33.6070   77.3460 C   0  0  0  0  0  0  0  0  0  0  0  0
   11.9160   33.3410   76.0000 C   0  0  0  0  0  0  0  0  0  0  0  0
   11.8660   35.7390   75.5160 C   0  0  0  0  0  0  0  0  0  0  0  0
   12.0390   34.4090   75.0840 C   0  0  0  0  0  0  0  0  0  0  0  0
   12.4360   34.0640   73.2750 BR  0  0  0  0  0  0  0  0  0  0  0  0
    7.6440   35.2900   78.1780 N   0  0  0  0  0  0  0  0  0  0  0  0
    7.6910   36.6250   78.1560 C   0  0  0  0  0  0  0  0  0  0  0  0
    9.6680   35.6870   79.4540 C   0  0  0  0  0  0  0  0  0  0  0  0
    8.6790   34.7260   78.8030 C   0  0  0  0  0  0  0  0  0  0  0  0
   11.5720   36.0040   76.8610 C   0  0  0  0  0  0  0  0  0  0  0  0
    9.2670   37.2270   78.6790 S   0  0  0  0  0  0  0  0  0  0  0  0
    6.4560   37.6810   77.7270 S   0  0  0  0  0  0  0  0  0  0  0  0
    8.8010   33.4940   78.8640 O   0  0  0  0  0  0  0  0  0  0  0  0
  1  2  2  0  0  0  0
  1  3  2  0  0  0  0
  1  4  1  0  0  0  0
  1  5  1  0  0  0  0
  4 18  1  0  0  0  0
  5  6  4  0  0  0  0
  5 10  4  0  0  0  0
  6  7  4  0  0  0  0
  7  8  4  0  0  0  0
  8  9  4  0  0  0  0
  9 10  4  0  0  0  0
 11 12  1  0  0  0  0
 11 20  1  0  0  0  0
 12 13  4  0  0  0  0
 12 22  4  0  0  0  0
 13 14  4  0  0  0  0
 14 16  4  0  0  0  0
 15 16  4  0  0  0  0
 15 22  4  0  0  0  0
 16 17  1  0  0  0  0
 18 19  1  0  0  0  0
 18 21  1  0  0  0  0
 19 23  1  0  0  0  0
 19 24  1  0  0  0  0
 20 21  1  0  0  0  0
 20 23  1  0  0  0  0
 21 25  2  0  0  0  0
M  END
